Circuit: * C:\Users\johan\OneDrive - ESEO\Documents\ESEO\E4e\Stage\Travail\Fichiers\Filtres\Notch\Passive Twin-T.asc

.OP point found by inspection.

Date: Tue Sep  5 15:25:39 2023
Total elapsed time: 0.042 seconds.

tnom = 27
temp = 27
method = trap
totiter = 0
traniter = 0
tranpoints = 0
accept = 0
rejected = 0
matrix size = 5
fillins = 2
solver = Normal
Avg thread counts: 16.0/0.0/0.0/2.4
Matrix Compiler1:      18 opcodes
Matrix Compiler2:      31 opcodes
