Circuit: * C:\Users\johan\OneDrive - ESEO\Documents\ESEO\E4e\Stage\Travail\Fichiers\Filtres\All-Pass\First-Order All-Pass.asc

Direct Newton iteration for .op point succeeded.

Date: Tue Oct  3 10:53:19 2023
Total elapsed time: 0.048 seconds.

tnom = 27
temp = 27
method = trap
totiter = 18
traniter = 0
tranpoints = 0
accept = 0
rejected = 0
matrix size = 30
fillins = 32
solver = Normal
Avg thread counts: 16.0/0.0/16.0/2.4
Matrix Compiler1:     163 opcodes
Matrix Compiler2: 3.04 KB object code size
