Circuit: * C:\Users\johan\OneDrive - ESEO\Documents\ESEO\E4e\Stage\Travail\Fichiers\Filters\Nonlinear filters\Moog ladder\Moog Ladder Filter.asc

Warning: Multiple definitions of model "2scr375p" Type: BJT
Warning: Multiple definitions of model "bc857b" Type: BJT
Warning: Multiple definitions of model "bc847c" Type: BJT
Warning: Multiple definitions of model "bc847b" Type: BJT
Direct Newton iteration for .op point succeeded.
.step if=1e-05
.step if=2e-05
.step if=5e-05
.step if=0.0001
.step if=0.0002
.step if=0.0005

Date: Thu Nov 16 16:38:32 2023
Total elapsed time: 0.264 seconds.

tnom = 27
temp = 27
method = trap
totiter = 9
traniter = 0
tranpoints = 0
accept = 0
rejected = 0
matrix size = 36
fillins = 37
solver = Normal
Avg thread counts: 16.0/0.0/16.0/3.3
Matrix Compiler1:     213 opcodes
Matrix Compiler2: 3.83 KB object code size
