Circuit: * C:\Users\johan\OneDrive - ESEO\Documents\ESEO\E4e\Stage\Travail\Fichiers\Filtres\All-Pass\Second-Order Lloyd All-Pass.asc

Early termination of direct N-R iteration.
Direct Newton iteration failed to find .op point.  (Use ".option noopiter" to skip.)
Starting Gmin stepping
Gmin = 10
vernier = 0.5
vernier = 0.25
vernier = 0.125
Gmin = 5.5165
vernier = 0.0625
vernier = 0.03125
vernier = 0.015625
vernier = 0.0078125
Gmin = 5.48432
vernier = 0.00390625
vernier = 0.00195312
vernier = 0.000976562
vernier = 0.000488281
Gmin = 0
Gmin stepping failed

Starting source stepping with srcstepmethod=0
Source Step = 3.0303%
Source Step = 33.3333%
Source Step = 63.6364%
Source Step = 93.9394%
Source stepping succeeded in finding the operating point.


Date: Thu Sep  7 17:06:30 2023
Total elapsed time: 0.609 seconds.

tnom = 27
temp = 27
method = trap
totiter = 1670
traniter = 0
tranpoints = 0
accept = 0
rejected = 0
matrix size = 105
fillins = 987
solver = Normal
Avg thread counts: 1.8/0.0/16.0/1.5
Matrix Compiler1:    6518 opcodes
Matrix Compiler2: 26.50 KB object code size  5.4/3.7/[2.2]

