Circuit: * C:\Users\johan\OneDrive - ESEO\Documents\ESEO\E4e\Stage\Travail\Fichiers\Filtres\Nonlinear filters\Voltage-Controlled\VCF.asc

Early termination of direct N-R iteration.
Direct Newton iteration failed to find .op point.  (Use ".option noopiter" to skip.)
Starting Gmin stepping
Gmin = 10
vernier = 0.5
vernier = 0.25
vernier = 0.125
Gmin = 5.5165
vernier = 0.0625
vernier = 0.03125
vernier = 0.015625
vernier = 0.0078125
Gmin = 5.48432
vernier = 0.00390625
vernier = 0.00195312
vernier = 0.000976562
vernier = 0.000488281
Gmin = 0
Gmin stepping failed

Starting source stepping with srcstepmethod=0
Source Step = 3.0303%
Source Step = 33.3333%
Source Step = 63.6364%
Source Step = 93.9394%
Source stepping succeeded in finding the operating point.


Date: Sat Nov 11 14:45:33 2023
Total elapsed time: 0.243 seconds.

tnom = 27
temp = 27
method = trap
totiter = 1636
traniter = 0
tranpoints = 0
accept = 0
rejected = 0
matrix size = 54
fillins = 214
solver = Normal
Avg thread counts: 1.9/0.0/16.0/1.5
Matrix Compiler1:     706 opcodes
Matrix Compiler2: 8.49 KB object code size  1.5/1.6/[0.9]

