Circuit: * C:\Users\johan\OneDrive - ESEO\Documents\ESEO\E4e\Stage\Travail\Fichiers\Filtres\Linear filters\Lowpass\Sallen-Key lowpass\MFIG lowpass\MFIG lowpass.asc

.OP point found by inspection.
Ignoring empty pin current: Ix(u1:1)
Ignoring empty pin current: Ix(u1:2)
Ignoring empty pin current: Ix(u1:1)
Ignoring empty pin current: Ix(u1:2)

Date: Wed Nov  8 11:42:40 2023
Total elapsed time: 0.042 seconds.

tnom = 27
temp = 27
method = trap
totiter = 0
traniter = 0
tranpoints = 0
accept = 0
rejected = 0
matrix size = 5
fillins = 3
solver = Normal
Avg thread counts: 16.0/0.0/0.0/2.7
Matrix Compiler1:      20 opcodes
Matrix Compiler2:      32 opcodes
