Circuit: * C:\Users\johan\OneDrive - ESEO\Documents\ESEO\E4e\Stage\Travail\Fichiers\Filtres\Elliptic filter\Elliptic filter.asc

WARNING: Less than two connections to node vo.  This node is used by e1.
.OP point found by inspection.

Date: Fri Sep  1 11:18:13 2023
Total elapsed time: 0.075 seconds.

tnom = 27
temp = 27
method = trap
totiter = 0
traniter = 0
tranpoints = 0
accept = 0
rejected = 0
matrix size = 7
fillins = 5
solver = Normal
Avg thread counts: 16.0/0.0/0.0/3.3
Matrix Compiler1:      18 opcodes
Matrix Compiler2:      41 opcodes
