Circuit: * C:\Users\johan\OneDrive - ESEO\Documents\ESEO\E4e\Stage\Travail\Fichiers\Filtres\Nonlinear filters\Buchla lowpass gate\Buchla.asc

WARNING: Node NC_01 is floating.

WARNING: Less than two connections to node nc_01.  This node is used by c4.
WARNING: Less than two connections to node vout.  This node is used by r10.
.OP point found by inspection.
Ignoring empty pin current: Ix(u1:1)
Ignoring empty pin current: Ix(u1:2)
Ignoring empty pin current: Ix(u2:1)
Ignoring empty pin current: Ix(u2:2)
Ignoring empty pin current: Ix(u1:1)
Ignoring empty pin current: Ix(u1:2)
Ignoring empty pin current: Ix(u2:1)
Ignoring empty pin current: Ix(u2:2)
.step rf=1000
.step rf=101000
.step rf=201000
.step rf=301000
.step rf=401000
.step rf=501000
.step rf=601000
.step rf=701000
.step rf=801000
.step rf=901000
.step rf=1e+06

Date: Sat Nov 11 14:22:10 2023
Total elapsed time: 0.637 seconds.

tnom = 27
temp = 27
method = trap
totiter = 0
traniter = 0
tranpoints = 0
accept = 0
rejected = 0
matrix size = 11
fillins = 2
solver = Normal
Avg thread counts: 16.0/0.0/0.0/3.3
Matrix Compiler1:      30 opcodes
Matrix Compiler2:      63 opcodes
