Circuit: * C:\Users\johan\OneDrive - ESEO\Documents\ESEO\E4e\Stage\Travail\Fichiers\Filtres\Chebyshev\lowpass\2nd order Chebyshev filter.asc

Direct Newton iteration for .op point succeeded.

Date: Tue Aug 29 11:30:19 2023
Total elapsed time: 0.088 seconds.

tnom = 27
temp = 27
method = trap
totiter = 37
traniter = 0
tranpoints = 0
accept = 0
rejected = 0
matrix size = 31
fillins = 46
solver = Normal
Avg thread counts: 16.0/0.0/16.0/2.7
Matrix Compiler1:     212 opcodes
Matrix Compiler2:     250 opcodes
