Circuit: * C:\Users\johan\OneDrive - ESEO\Documents\ESEO\E4e\Stage\Travail\Fichiers\Filtres\Notch\RLC Notch.asc

Direct Newton iteration for .op point succeeded.

Date: Tue Sep  5 14:59:47 2023
Total elapsed time: 0.057 seconds.

tnom = 27
temp = 27
method = trap
totiter = 18
traniter = 0
tranpoints = 0
accept = 0
rejected = 0
matrix size = 32
fillins = 32
solver = Normal
Avg thread counts: 16.0/0.0/16.0/2.4
Matrix Compiler1:     171 opcodes
Matrix Compiler2: 3.16 KB object code size
