Circuit: * C:\Users\johan\OneDrive - ESEO\Documents\ESEO\E4e\Stage\Travail\Fichiers\Filtres\Chebyshev\highpass\7th order Chebyshev filter.asc

WARNING: Node N009 is floating.
WARNING: Node N008 is floating.
WARNING: Node N014 is floating.

Early termination of direct N-R iteration.
Direct Newton iteration failed to find .op point.  (Use ".option noopiter" to skip.)
Starting Gmin stepping
Gmin = 10
vernier = 0.5
vernier = 0.25
vernier = 0.125
Gmin = 5.5165
vernier = 0.0625
vernier = 0.03125
vernier = 0.015625
vernier = 0.0078125
Gmin = 5.48432
vernier = 0.00390625
vernier = 0.00195312
vernier = 0.000976562
vernier = 0.000488281
Gmin = 0
Gmin stepping failed

Starting source stepping with srcstepmethod=0
Source Step = 3.0303%
Source Step = 33.3333%
Source Step = 63.6364%
Source Step = 93.9394%
Source stepping succeeded in finding the operating point.


Date: Wed Aug 30 10:59:14 2023
Total elapsed time: 0.392 seconds.

tnom = 27
temp = 27
method = trap
totiter = 1680
traniter = 0
tranpoints = 0
accept = 0
rejected = 0
matrix size = 104
fillins = 921
solver = Normal
Avg thread counts: 1.8/0.0/16.0/1.6
Matrix Compiler1:    6568 opcodes
Matrix Compiler2: 25.16 KB object code size  2.6/2.0/[1.3]

