Circuit: * C:\Users\johan\OneDrive - ESEO\Documents\ESEO\E4e\Stage\Travail\Fichiers\Filtres\State-variable filters\Anderton Super Tone\Anderton Super Tone.asc

