Circuit: * C:\Users\johan\OneDrive - ESEO\Documents\ESEO\E4e\Stage\Travail\Fichiers\Filtres\All-Pass\Realization of Bandwith Network.asc

Early termination of direct N-R iteration.
Direct Newton iteration failed to find .op point.  (Use ".option noopiter" to skip.)
Starting Gmin stepping
Gmin = 10
vernier = 0.5
vernier = 0.25
vernier = 0.125
Gmin = 5.6588
vernier = 0.0625
vernier = 0.03125
vernier = 0.015625
Gmin = 5.48561
vernier = 0.0078125
vernier = 0.00390625
vernier = 0.00195312
vernier = 0.000976562
Gmin = 5.49362
vernier = 0.000488281
Gmin = 0
Gmin stepping failed

Starting source stepping with srcstepmethod=0
Source Step = 3.0303%
Source Step = 33.3333%
Source Step = 63.6364%
Source Step = 93.9394%
Source stepping succeeded in finding the operating point.


Date: Wed Sep  6 16:11:08 2023
Total elapsed time: 0.330 seconds.

tnom = 27
temp = 27
method = trap
totiter = 1637
traniter = 0
tranpoints = 0
accept = 0
rejected = 0
matrix size = 150
fillins = 996
solver = Normal
Avg thread counts: 1.9/0.0/15.6/1.5
Matrix Compiler1:    5546 opcodes
Matrix Compiler2: 30.64 KB object code size  3.5/2.6/[1.7]

