Circuit: * C:\Users\johan\OneDrive - ESEO\Documents\ESEO\E4e\Stage\Travail\Fichiers\Filtres\Biquad\Biquad.asc

.OP point found by inspection.
Ignoring empty pin current: Ix(u4:1)
Ignoring empty pin current: Ix(u4:2)
Ignoring empty pin current: Ix(u5:1)
Ignoring empty pin current: Ix(u5:2)
Ignoring empty pin current: Ix(u6:1)
Ignoring empty pin current: Ix(u6:2)
Ignoring empty pin current: Ix(u4:1)
Ignoring empty pin current: Ix(u4:2)
Ignoring empty pin current: Ix(u5:1)
Ignoring empty pin current: Ix(u5:2)
Ignoring empty pin current: Ix(u6:1)
Ignoring empty pin current: Ix(u6:2)

Date: Mon Oct  2 16:21:33 2023
Total elapsed time: 0.055 seconds.

tnom = 27
temp = 27
method = trap
totiter = 0
traniter = 0
tranpoints = 0
accept = 0
rejected = 0
matrix size = 8
fillins = 6
solver = Normal
Avg thread counts: 16.0/0.0/0.0/2.7
Matrix Compiler1:      35 opcodes
Matrix Compiler2:      53 opcodes
