Circuit: * C:\Users\johan\OneDrive - ESEO\Documents\ESEO\E4e\Stage\Travail\Fichiers\Filtres\Lowpass\Sallen-Key lowpass\Sallen-Key lowpass.asc

.OP point found by inspection.

Date: Tue Oct  3 10:34:53 2023
Total elapsed time: 0.057 seconds.

tnom = 27
temp = 27
method = trap
totiter = 0
traniter = 0
tranpoints = 0
accept = 0
rejected = 0
matrix size = 4
fillins = 0
solver = Normal
Avg thread counts: 16.0/0.0/0.0/2.7
Matrix Compiler1:       7 opcodes
Matrix Compiler2:      21 opcodes
